data_Microcline-American\Mineralogist\64\(1979)\402-408
_audit_creation_date              2025-01-20
_audit_creation_method            'Materials Studio'
_symmetry_space_group_name_H-M    "C-1"
_symmetry_Int_Tables_number       1 
#在 International Tables for Crystallography 中，空间群符号 C1 对应的数字编号是 1, corrected by wanqi
_symmetry_cell_setting            triclinic
loop_
_symmetry_equiv_pos_as_xyz
  x,y,z
  -x,-y,-z
  x+1/2,y+1/2,z
  -x+1/2,-y+1/2,-z
_cell_length_a                    8.6430
_cell_length_b                    12.9290
_cell_length_c                    7.1900
_cell_angle_alpha                 90.1000
_cell_angle_beta                  116.2000
_cell_angle_gamma                 89.6000
loop_
_atom_site_label
_atom_site_type_symbol
_atom_site_fract_x
_atom_site_fract_y
_atom_site_fract_z
_atom_site_U_iso_or_equiv
_atom_site_adp_type
_atom_site_occupancy
K      K     0.28670   0.99850   0.14060   0.02948  Uani   1.00
Al1o   Al    0.00950   0.18440   0.22250   0.01169  Uani   1.00
Si1m   Si    0.00910   0.81680   0.22490   0.01136  Uani   1.00
Si2o   Si    0.71050   0.11840   0.34130   0.01226  Uani   1.00
Si2m   Si    0.70950   0.88260   0.34330   0.01379  Uani   1.00
Oa1    O     0.00050   0.14400   0.99770   0.02684  Uani   1.00
Oa2    O     0.63820   0.00110   0.28090   0.02541  Uani   1.00
Obo    O     0.82510   0.14720   0.22280   0.03034  Uani   1.00
Obm    O     0.82780   0.85340   0.22740   0.03169  Uani   1.00
Oco    O     0.03670   0.31160   0.25800   0.02485  Uani   1.00
Ocm    O     0.03780   0.69030   0.26020   0.02249  Uani   1.00
Odo    O     0.18150   0.12400   0.40750   0.02443  Uani   1.00
Odm    O     0.17900   0.87490   0.40850   0.02490  Uani   1.00
loop_
_atom_site_aniso_label
_atom_site_aniso_U_11
_atom_site_aniso_U_22
_atom_site_aniso_U_33
_atom_site_aniso_U_12
_atom_site_aniso_U_13
_atom_site_aniso_U_23
K         0.02133   0.03218   0.03268   0.00152   0.00988   0.00085
Al1o      0.01554   0.00762   0.01349   0.00102   0.00786   0.00085
Si1m      0.01584   0.00593   0.01328   0.00305   0.00735   0.00211
Si2o      0.01645   0.00423   0.01602   0.00051   0.00710   0.00254
Si2m      0.01645   0.00593   0.01834   0.00051   0.00710   0.00042
Oa1       0.03382   0.01524   0.03352   0.00000   0.01673   0.00254
Oa2       0.02803   0.01524   0.02509   0.00203   0.00456   0.00380
Obo       0.03138   0.03218   0.03352  -0.00559   0.01977   0.00254
Obm       0.03290   0.03641   0.02952   0.00102   0.01723  -0.00000
Oco       0.02437   0.01778   0.03163  -0.00152   0.01166  -0.00380
Ocm       0.02376   0.01186   0.02973   0.00203   0.00988   0.00380
Odo       0.03321   0.01016   0.02657   0.00051   0.01014   0.00254
Odm       0.02925   0.01355   0.02846   0.00102   0.00963  -0.00000
